LAMMPS (2 Aug 2023)

#############################################################################
# Input file for simulating CO2 molecules using the EPM-2 force field
#############################################################################

#----------------------------------------
# Global model settings
#----------------------------------------

units           real
atom_style      full
boundary        p p p
pair_style      lj/cut/coul/long  14
pair_modify     mix geometric tail yes
kspace_style    pppm 1e-6
bond_style      harmonic
angle_style     harmonic

#-------------------------------------------------------
# Constants and variables
#-------------------------------------------------------

variable       Temp		    index		253                 # K
variable       Pres        index        98.7167                 # in BAR
variable       RandomSeed   index       3003                 # The random seed for velocity
#################### NPT ##############################################################################
variable       Ninpt    equal       100000       # Initialize the NPT ensemble (very small timesteps)
variable       Npnpt    equal       5000000      # Production the NPT ensemble

# #################### NVT ##############################################################################
# variable       Ninvt    equal       100000       # Initialize the NVT ensemble (very small timesteps)
# variable       Npnvt    equal       5000000       # Production the NVT ensemble

# #################### NVE ##############################################################################
# variable       Npnve    equal       10000000       # Production the NVE ensemble

#################### SAMPLING ###########################################################################
variable        Nf          equal       500             # rate of outputting to the log file
variable        NBR         equal       5000000/100
variable        nb          equal       10              # Number of blocks (fix ordern)
variable        nbe         equal       20              # Number of block elements (fix ordern)
# variable        Nvisc       equal       5               # Nevery for viscosity
# variable        Ndiff       equal       500            # Nevery for diffusivity (fix ordern: sample data at (Ndiff))
# variable        Nwrit       equal       10000            # Nwrite for transport properties (fix ordern: write every (Nwrit))

#---------------------------------------------
# Box, start molecules on simple cubic lattice
#---------------------------------------------
read_data ./data.lmp     # read the positions
Reading data file ...
  orthogonal box = (0 0 0) to (43.625768 43.625768 43.625768)
  reading atoms ...
  3000 atoms
  scanning bonds ...
  scanning angles ...
  reading bonds ...
  2000 bonds
  reading angles ...
  1000 angles
Finding 1-2 1-3 1-4 neighbors ...
     2 = max # of 1-2 neighbors
     1 = max # of 1-3 neighbors
     1 = max # of 1-4 neighbors
     2 = max # of special neighbors

#-------------------------------
# FORCEFIELD - flex EPM2 model
#-------------------------------

pair_coeff      1   1  0.05589  2.757       # C-C
pair_coeff      2   2  0.1599   3.033       # O-O
#pair_coeff      1   2  0.0946   2.892       # EPM2 contains a geometric mean - only this interaction overrides arith mix

bond_coeff      1       0           1.149
angle_coeff     1       147.705     180

#-------
# Masses
#-------

mass 1 12.0107
mass 2 15.9994

#------------
# MD settings
#------------

group           carb type 1
2000 atoms in group carb
group           oxy  type 2
1000 atoms in group oxy

neighbor        3.0 bin
neigh_modify    every 1 delay 0 check yes
run_style       verlet

#----------------
# NPT simulations
#----------------

fix         constrain   all   shake   1e-6    1000 0 b 1
Finding SHAKE clusters ...
       0 = # of size 2 clusters
    1000 = # of size 3 clusters
       0 = # of size 4 clusters
       0 = # of frozen angles
  find clusters CPU = 0.002 seconds
fix         runnpt      all   npt     temp    253 253 100 iso 98.7167 98.7167 1000

#----------
# Output
#----------

compute 1 all angle/local theta         # compute angles and dump into file

compute 2 all reduce ave    c_1
compute 3 all reduce avesq  c_1

compute 4 all   bond/local  dist
compute 5 all   reduce ave  c_4

thermo_style custom step pe ke etotal press temp c_2 c_3 c_5
thermo_modify  flush yes
thermo 500

#--------------------
# Run (Initialization)
#--------------------

# initialize to imposed temperature
velocity    all create 253 3003
run         0
PPPM initialization ...
  G vector (1/distance) = 0.23221062
  grid = 36 36 36
  stencil order = 5
  estimated absolute RMS force accuracy = 0.00025938495
  estimated relative force accuracy = 7.8113007e-07
  3d grid and FFT values/proc = 11875 3888
Generated 1 of 1 mixed pair_coeff terms from geometric mixing rule
Step         PotEng         KinEng         TotEng         Press           Temp           c_2            c_3            c_5
0  -1247.1128      1758.9174      511.80459      4527.3483      253            179.99963      32399.865      1.149
Loop time of 3.82519e-05 on 12 procs for 0 steps with 3000 atoms

velocity    all scale 253
velocity    all zero linear         # set box momentum to zero

timestep    0.0001
run         100000
PPPM initialization ...
  G vector (1/distance) = 0.23221062
  grid = 36 36 36
  stencil order = 5
  estimated absolute RMS force accuracy = 0.00025938495
  estimated relative force accuracy = 7.8113007e-07
  3d grid and FFT values/proc = 11875 3888
Generated 1 of 1 mixed pair_coeff terms from geometric mixing rule
Step         PotEng         KinEng         TotEng         Press           Temp           c_2            c_3            c_5
0  -1247.1131      1758.9174      511.80432      34510205       253            179.99963      32399.865      1.149
Averages over the last 101 of 201 rows, steps 50000 to 100000:
PotEng KinEng TotEng Press Temp c_2 c_3 c_5
-900.844 1022.84 122 1411.95 147.124 177.462 31494.4 1.149
Loop time of 621.086 on 12 procs for 100000 steps with 3000 atoms

timestep    0.001
run         100000
PPPM initialization ...
  G vector (1/distance) = 0.23220806
  grid = 36 36 36
  stencil order = 5
  estimated absolute RMS force accuracy = 0.00025942537
  estimated relative force accuracy = 7.812518e-07
  3d grid and FFT values/proc = 11875 3888
Generated 1 of 1 mixed pair_coeff terms from geometric mixing rule
Step         PotEng         KinEng         TotEng         Press           Temp           c_2            c_3            c_5
100000  -928.10665      1051.4095      123.30281      431679.67      151.23314      177.52362      31516.109      1.149
Averages over the last 101 of 201 rows, steps 150000 to 200000:
PotEng KinEng TotEng Press Temp c_2 c_3 c_5
-1272.84 1497.46 224.617 1237.94 215.393 178.237 31769.9 1.149
Loop time of 619.801 on 12 procs for 100000 steps with 3000 atoms

timestep    0.01
run         100000
PPPM initialization ...
  G vector (1/distance) = 0.23194148
  grid = 36 36 36
  stencil order = 5
  estimated absolute RMS force accuracy = 0.00026366497
  estimated relative force accuracy = 7.9401922e-07
  3d grid and FFT values/proc = 11875 3888
Generated 1 of 1 mixed pair_coeff terms from geometric mixing rule
Step         PotEng         KinEng         TotEng         Press           Temp           c_2            c_3            c_5
200000  -1552.6396      1813.9607      261.32114      396965.89      260.91735      179.06707      32065.255      1.149
Averages over the last 101 of 201 rows, steps 250000 to 300000:
PotEng KinEng TotEng Press Temp c_2 c_3 c_5
-1360.96 1757.6 396.648 221.253 252.811 178.062 31707.4 1.149
Loop time of 612.527 on 12 procs for 100000 steps with 3000 atoms

timestep    0.1
run         100000
PPPM initialization ...
  G vector (1/distance) = 0.2301623
  grid = 36 36 36
  stencil order = 5
  estimated absolute RMS force accuracy = 0.00029358707
  estimated relative force accuracy = 8.8412875e-07
  3d grid and FFT values/proc = 11875 3888
Generated 1 of 1 mixed pair_coeff terms from geometric mixing rule
Step         PotEng         KinEng         TotEng         Press           Temp           c_2            c_3            c_5
300000  -1366.4582      1838.6207      472.16249      10100.26       264.46441      178.32928      31802.243      1.149
Averages over the last 101 of 201 rows, steps 350000 to 400000:
PotEng KinEng TotEng Press Temp c_2 c_3 c_5
-846.155 1761.36 915.206 129.622 253.352 177.852 31632.5 1.149
Loop time of 542.526 on 12 procs for 100000 steps with 3000 atoms

timestep    0.2
run         100000
PPPM initialization ...
  G vector (1/distance) = 0.22720344
  grid = 40 40 40
  stencil order = 5
  estimated absolute RMS force accuracy = 0.00029891749
  estimated relative force accuracy = 9.0018113e-07
  3d grid and FFT values/proc = 15309 6400
Generated 1 of 1 mixed pair_coeff terms from geometric mixing rule
Step         PotEng         KinEng         TotEng         Press           Temp           c_2            c_3            c_5
400000  -750.66561      1734.4881      983.82252      2285.6012      249.48613      177.85752      31634.616      1.149
Averages over the last 101 of 201 rows, steps 450000 to 500000:
PotEng KinEng TotEng Press Temp c_2 c_3 c_5
-433.122 1758.58 1325.46 99.2077 252.952 177.666 31566.8 1.149
Loop time of 593.053 on 12 procs for 100000 steps with 3000 atoms

timestep    0.25
run         100000
PPPM initialization ...
  G vector (1/distance) = 0.22163418
  grid = 40 40 40
  stencil order = 5
  estimated absolute RMS force accuracy = 0.00041341368
  estimated relative force accuracy = 1.244983e-06
  3d grid and FFT values/proc = 15309 6400
Generated 1 of 1 mixed pair_coeff terms from geometric mixing rule
Step         PotEng         KinEng         TotEng         Press           Temp           c_2            c_3            c_5
500000  -472.27988      1772.3862      1300.1063      401.53205      254.93733      177.70287      31579.835      1.149
Averages over the last 101 of 201 rows, steps 550000 to 600000:
PotEng KinEng TotEng Press Temp c_2 c_3 c_5
-435.395 1761.44 1326.04 98.2562 253.362 177.674 31569.6 1.149
Loop time of 580.454 on 12 procs for 100000 steps with 3000 atoms

timestep    0.5
run         100000
PPPM initialization ...
  G vector (1/distance) = 0.22142892
  grid = 40 40 40
  stencil order = 5
  estimated absolute RMS force accuracy = 0.00041848163
  estimated relative force accuracy = 1.260245e-06
  3d grid and FFT values/proc = 15309 6400
Generated 1 of 1 mixed pair_coeff terms from geometric mixing rule
Step         PotEng         KinEng         TotEng         Press           Temp           c_2            c_3            c_5
600000  -419.75611      1778.4776      1358.7215     -50.032439      255.81352      177.61677      31549.386      1.149
Averages over the last 101 of 201 rows, steps 650000 to 700000:
PotEng KinEng TotEng Press Temp c_2 c_3 c_5
-392.632 1757.89 1365.26 98.7913 252.852 177.645 31559.4 1.149
Loop time of 568.764 on 12 procs for 100000 steps with 3000 atoms

timestep    1.0
run         100000
PPPM initialization ...
  G vector (1/distance) = 0.22621512
  grid = 45 45 45
  stencil order = 5
  estimated absolute RMS force accuracy = 0.00026535799
  estimated relative force accuracy = 7.991177e-07
  3d grid and FFT values/proc = 19800 8100
Generated 1 of 1 mixed pair_coeff terms from geometric mixing rule
Step         PotEng         KinEng         TotEng         Press           Temp           c_2            c_3            c_5
700000  -412.98129      1788.1786      1375.1973      170.56391      257.20889      177.70783      31581.602      1.149
Averages over the last 101 of 201 rows, steps 750000 to 800000:
PotEng KinEng TotEng Press Temp c_2 c_3 c_5
-419.245 1759.53 1340.28 99.0962 253.088 177.645 31559.4 1.149
Loop time of 782.624 on 12 procs for 100000 steps with 3000 atoms

#-----------------------------
# Production phase NPT
#----------------------------

unfix       runnpt
fix         runnpt      all   npt     temp  253 253 100 iso 98.7167 98.7167 1000

variable Volume         equal   vol
variable Density        equal   density
variable Temperature    equal   temp
variable Pressure       equal   press

reset_timestep 0

#################### writing avergae's to file from NPT ######################
# Creating restart files
restart 500 1.restart 2.restart

# Getting the average volume of the system

fix VoluAve all ave/time 1 5000000 5000000 v_Volume file volume.dat

fix DensAve all ave/time 1 50000 50000 v_Density file density.dat

fix TempAve1 all ave/time 1 50000 50000 v_Temperature file temperature_NPT.dat

fix PressAve1 all ave/time 1 50000 50000 v_Pressure file pressure_NPT.dat

run 5000000
PPPM initialization ...
  G vector (1/distance) = 0.22572833
  grid = 45 45 45
  stencil order = 5
  estimated absolute RMS force accuracy = 0.00027312873
  estimated relative force accuracy = 8.2251907e-07
  3d grid and FFT values/proc = 19800 8100
Generated 1 of 1 mixed pair_coeff terms from geometric mixing rule
Step         PotEng         KinEng         TotEng         Press           Temp           c_2            c_3            c_5
0  -337.36278      1731.8773      1394.5145     -209.37601      249.1106       177.65059      31561.344      1.149
Averages over the last 5001 of 10001 rows, steps 2500000 to 5000000:
PotEng KinEng TotEng Press Temp c_2 c_3 c_5
-656.719 1760.07 1103.36 98.6087 253.166 177.526 31517.2 1.149
Loop time of 40537.4 on 12 procs for 5000000 steps with 3000 atoms
